CM Inverted V Antenna for TART
CE
GW 0 11 0.0 0.0 0.1 0.1 0.0 0.1 0.001
GE

