CM Inverted V Antenna for TART
CE
GW 0 11 0.0 0.0 0.08 0.1 0.0 0.03 0.001 0 0
GW 1 11 0.0 0.0 0.08 -0.1 0.0 0.03 0.001 0 0
GW 2 11 0.0 0.0 0.08 0.0 0.1 0.03 0.001 0 0
GW 3 11 0.0 0.0 0.08 0.0 -0.1 0.03 0.001 0 0
GE 1
EX 0 0 1 0 1 0
EX 0 1 1 0 1 0
EX 0 2 1 0 1 0
EX 0 3 1 0 1 0
FR 0 1 0 0 1545.42 0
RP 0 37 37 0 0.00000E+00 0.00000E+00 1.00000E+01 1.00000E+01
EN

